8
Acrolein
C         1.05428469749338       0.65358557898822       0.00000000000000
C         0.27804327374397      -0.43994498505075       0.00000000000000
C        -1.20536720394975      -0.35261935628126       0.00000000000000
O        -1.84340693024625       0.69255478554071       0.00000000000000
H         0.59461620591653       1.64505976465604       0.00000000000000
H         2.14321032523410       0.58569098688904       0.00000000000000
H         0.71394169245751      -1.44452436477541       0.00000000000000
H        -1.73532206064949      -1.33980241996660       0.00000000000000
