46
Chlorophyll A1 with Magnesium
 C    -1.458481   -2.982527   -0.033229 
 C    -0.060362   -2.954345   -0.069766 
 C     2.042370   -2.170434   -0.107053 
 N     0.710330   -1.847869   -0.059589 
 Mg   -0.131216    0.150323    0.007580 
 N    -2.039947   -0.587414    0.047769 
 C    -3.198985    0.150286    0.091566 
 C    -4.346312   -0.765985    0.094054 
 C    -2.374277   -1.906691    0.018647 
 C    -3.249250    1.544254    0.123432 
 C    -2.168097    2.463370    0.113535 
 N    -0.853840    2.120554    0.063248 
 C    -0.115719    3.282659    0.078631 
 C    -2.292214    3.907065    0.159469 
 C     3.036366   -1.211559   -0.112955 
 C     2.825519    0.190055   -0.075355 
 N     1.738677    0.959339   -0.031456 
 C     2.185158    2.273606   -0.004965 
 C     3.626151    2.298037   -0.036407 
 C     4.024825    0.962000   -0.081466 
 C     1.287959    3.357397    0.046376 
 C     5.150738    0.035539   -0.130290 
 C     4.549265   -1.402582   -0.155319 
 H     4.899750   -1.918321   -1.059192 
 H     4.943003   -1.967691    0.699827 
 O     6.355768    0.270913   -0.150188 
 C    -5.744276   -0.357875    0.137789 
 H    -5.927798    0.714565    0.166639 
 C    -6.810928   -1.174500    0.146110 
 H    -6.715163   -2.257020    0.119510 
 H    -7.818897   -0.772549    0.180220 
 H    -4.235410    1.997081    0.161310 
 H    -3.225278    4.455562    0.203731 
 H    -1.907563   -3.972357   -0.049502 
 C    -3.812443   -2.035022    0.047707 
 H    -4.348600   -2.975834    0.034468 
 H     4.238173    3.191136   -0.025899 
 H     1.719357    4.354977    0.065202 
 C    -1.019119    4.413593    0.138209 
 H    -0.717480    5.453814    0.161505 
 C     0.790492   -4.217240   -0.131644 
 H     0.551117   -4.801909   -1.026041 
 H     0.593892   -4.861452    0.731588 
 C     2.237288   -3.675480   -0.149747 
 H     2.786248   -3.975621   -1.048775 
 H     2.824122   -4.019714    0.708832 
