36
Coronene
 C                 -0.68787419    3.68891166    0.00000000
 C                  0.68787419    3.68891166   -0.00000000
 C                  1.42670474    2.47112510    0.00000000
 C                  0.71378334    1.23630902    0.00000000
 C                 -0.71378334    1.23630902    0.00000000
 C                 -1.42670474    2.47112510    0.00000000
 C                 -2.85075411    2.44017236    0.00000000
 C                 -3.53862831    1.24873930    0.00000000
 C                 -2.85340948   -0.00000000    0.00000000
 C                 -1.42756669   -0.00000000    0.00000000
 C                 -0.71378334   -1.23630902    0.00000000
 C                 -1.42670474   -2.47112510    0.00000000
 C                 -2.85075411   -2.44017236    0.00000000
 C                 -3.53862831   -1.24873930    0.00000000
 C                 -0.68787419   -3.68891166    0.00000000
 C                  0.68787419   -3.68891166    0.00000000
 C                  1.42670474   -2.47112510    0.00000000
 C                  0.71378334   -1.23630902    0.00000000
 C                  1.42756669    0.00000000    0.00000000
 C                  2.85340948    0.00000000    0.00000000
 C                  3.53862831    1.24873930    0.00000000
 C                  2.85075411    2.44017236    0.00000000
 C                  3.53862831   -1.24873930    0.00000000
 C                  2.85075411   -2.44017236    0.00000000
 H                 -1.23682196    4.63415140    0.00000000
 H                  1.23682196    4.63415140   -0.00000000
 H                 -3.39488186    3.38819494    0.00000000
 H                 -4.63170382    1.24595647    0.00000000
 H                 -3.39488186   -3.38819494    0.00000000
 H                 -4.63170382   -1.24595647    0.00000000
 H                 -1.23682196   -4.63415140    0.00000000
 H                  1.23682196   -4.63415140    0.00000000
 H                  4.63170382    1.24595647    0.00000000
 H                  3.39488186    3.38819494    0.00000000
 H                  4.63170382   -1.24595647    0.00000000
 H                  3.39488186   -3.38819494    0.00000000