96
C52H40B2N2 optimized with ADF in AMS.
B         0.00000000000000      -0.00000000000000      -1.50612628962723
C         0.00088521368585      -1.35402004882275      -0.71200003463596
C         0.00259468529425      -2.58192307379895      -1.39085728477764
C         0.00160224511616      -3.79539796326411      -0.69695834866785
C        -0.00160224511616      -3.79539796326411       0.69695834866785
C        -0.00259468529425      -2.58192307379895       1.39085728477764
C        -0.00088521368585      -1.35402004882275       0.71200003463596
B        -0.00000000000000      -0.00000000000000       1.50612628962723
C         0.00088521368585       1.35402004882275       0.71200003463596
C         0.00259468529425       2.58192307379895       1.39085728477764
C         0.00160224511616       3.79539796326411       0.69695834866785
C        -0.00160224511616       3.79539796326411      -0.69695834866785
C        -0.00259468529425       2.58192307379895      -1.39085728477764
C        -0.00088521368585       1.35402004882275      -0.71200003463596
C        -0.00000000000000      -0.00000000000000       3.08945600271207
C        -1.21733273292059      -0.00279948910987       3.80263144996505
C        -1.20680719690981      -0.01239902093437       5.20013163970723
C        -0.00000000000000      -0.00000000000000       5.90130869683222
C         1.20680719690981       0.01239902093437       5.20013163970723
C         1.21733273292059       0.00279948910987       3.80263144996505
C         2.53234096687706       0.00570477405828       3.06055019407322
N        -0.00000000000000       0.00000000000000       7.31981691391913
C         0.65333658412333      -0.92265115473241       8.13384292504461
C         1.40840645950837      -2.04333922232566       7.77479745321870
C         1.94118976541630      -2.81972300034542       8.79999215728942
C         1.72941327264019      -2.49656948948260      10.15158517605921
C         0.96706920703845      -1.38767467645445      10.50345603518995
C         0.41827820468690      -0.59079343686802       9.49188836555705
C        -0.41827820468690       0.59079343686802       9.49188836555705
C        -0.96706920703845       1.38767467645445      10.50345603518995
C        -1.72941327264019       2.49656948948260      10.15158517605921
C        -1.94118976541630       2.81972300034542       8.79999215728942
C        -1.40840645950837       2.04333922232566       7.77479745321870
C        -0.65333658412333       0.92265115473241       8.13384292504461
C        -2.53234096687706      -0.00570477405828       3.06055019407322
C         0.00000000000000      -0.00000000000000      -3.08945600271207
C        -1.21733273292059       0.00279948910987      -3.80263144996505
C        -1.20680719690981       0.01239902093437      -5.20013163970723
C         0.00000000000000      -0.00000000000000      -5.90130869683222
C         1.20680719690981      -0.01239902093437      -5.20013163970723
C         1.21733273292059      -0.00279948910987      -3.80263144996505
C         2.53234096687706      -0.00570477405828      -3.06055019407322
N         0.00000000000000       0.00000000000000      -7.31981691391913
C         0.65333658412333       0.92265115473241      -8.13384292504461
C         1.40840645950837       2.04333922232566      -7.77479745321870
C         1.94118976541630       2.81972300034542      -8.79999215728942
C         1.72941327264019       2.49656948948260     -10.15158517605921
C         0.96706920703845       1.38767467645445     -10.50345603518995
C         0.41827820468690       0.59079343686802      -9.49188836555705
C        -0.41827820468690      -0.59079343686802      -9.49188836555705
C        -0.96706920703845      -1.38767467645445     -10.50345603518995
C        -1.72941327264019      -2.49656948948260     -10.15158517605921
C        -1.94118976541630      -2.81972300034542      -8.79999215728942
C        -1.40840645950837      -2.04333922232566      -7.77479745321870
C        -0.65333658412333      -0.92265115473241      -8.13384292504461
C        -2.53234096687706       0.00570477405828      -3.06055019407322
H         0.00572038654025      -2.58591357072173      -2.48031119196457
H         0.00332741218097      -4.73678015851337      -1.24291265515521
H        -0.00332741218097      -4.73678015851337       1.24291265515521
H        -0.00572038654025      -2.58591357072173       2.48031119196457
H         0.00572038654025       2.58591357072173       2.48031119196457
H         0.00332741218097       4.73678015851337       1.24291265515521
H        -0.00332741218097       4.73678015851337      -1.24291265515521
H        -0.00572038654025       2.58591357072173      -2.48031119196457
H        -2.14320223349288      -0.03832915589441       5.75377111404259
H         2.14320223349288       0.03832915589441       5.75377111404259
H         3.38153260900534       0.05439939501098       3.74851626624880
H         2.60038668647139       0.86238577956605       2.37803033940259
H         2.64249877771960      -0.90023903029017       2.45035571602962
H         1.57031460521995      -2.30278533393902       6.73213903186491
H         2.53240117404134      -3.69704328271959       8.54698034515273
H         2.16279064613957      -3.12412466802178      10.92652830567826
H         0.79625082813083      -1.14543726816553      11.55036016199337
H        -0.79625082813083       1.14543726816553      11.55036016199337
H        -2.16279064613957       3.12412466802178      10.92652830567826
H        -2.53240117404134       3.69704328271959       8.54698034515273
H        -1.57031460521995       2.30278533393902       6.73213903186491
H        -2.64249877771960       0.90023903029017       2.45035571602962
H        -2.60038668647139      -0.86238577956605       2.37803033940259
H        -3.38153260900534      -0.05439939501098       3.74851626624880
H        -2.14320223349288       0.03832915589441      -5.75377111404259
H         2.14320223349288      -0.03832915589441      -5.75377111404259
H         3.38153260900534      -0.05439939501098      -3.74851626624880
H         2.64249877771960       0.90023903029017      -2.45035571602962
H         2.60038668647139      -0.86238577956605      -2.37803033940259
H         1.57031460521995       2.30278533393902      -6.73213903186491
H         2.53240117404134       3.69704328271959      -8.54698034515273
H         2.16279064613957       3.12412466802178     -10.92652830567826
H         0.79625082813083       1.14543726816553     -11.55036016199337
H        -0.79625082813083      -1.14543726816553     -11.55036016199337
H        -2.16279064613957      -3.12412466802178     -10.92652830567826
H        -2.53240117404134      -3.69704328271959      -8.54698034515273
H        -1.57031460521995      -2.30278533393902      -6.73213903186491
H        -3.38153260900534       0.05439939501098      -3.74851626624880
H        -2.64249877771960      -0.90023903029017      -2.45035571602962
H        -2.60038668647139       0.86238577956605      -2.37803033940259
