26
Pyrene
 C      0.000000    0.000000    3.522994
 C      0.000000    1.210115    2.831822
 C      0.000000    1.235080    1.428200
 C      0.000000    0.000000    0.713071
 C      0.000000   -1.235080    1.428200
 C      0.000000   -1.210115    2.831822
 C      0.000000    2.462318    0.680762
 C      0.000000    0.000000   -0.713071
 C      0.000000    1.235080   -1.428200
 C      0.000000    2.462318   -0.680762
 C      0.000000    1.210115   -2.831822
 H      0.000000    2.150000   -3.378241
 C      0.000000    0.000000   -3.522994
 C      0.000000   -1.210115   -2.831822
 C      0.000000   -1.235080   -1.428200
 C      0.000000   -2.462318   -0.680762
 C      0.000000   -2.462318    0.680762
 H      0.000000   -3.400882    1.229768
 H      0.000000   -3.400882   -1.229768
 H      0.000000    3.400882    1.229768
 H      0.000000    0.000000    4.609520
 H      0.000000    2.150000    3.378241
 H      0.000000   -2.150000    3.378241
 H      0.000000    3.400882   -1.229768
 H      0.000000    0.000000   -4.609520
 H      0.000000   -2.150000   -3.378241
