 64
Rhodamine 6G amide
 C                 -9.14817840   -2.48686349    0.24135269
 C                 -7.81723654   -2.45703124   -0.05386957
 C                 -7.10970881   -1.25708044    0.02242547
 C                 -7.75898131   -0.07143065    0.41836737
 C                 -9.13815281   -0.11581300    0.69328723
 C                 -9.81974079   -1.29885458    0.60294941
 C                 -5.76084167   -1.22125952   -0.29110221
 C                 -5.78498646    1.13042997    0.25634476
 C                 -5.08948143    0.00233485   -0.19263375
 C                 -3.72958716    0.11375693   -0.52152318
 H                 -3.20239888   -0.73689265   -0.88483773
 C                 -3.07782104    1.30673714   -0.36620284
 C                 -3.75986447    2.42090618    0.14798124
 C                 -5.09388613    2.34897339    0.42387565
 H                 -7.31858312   -3.36428587   -0.34925896
 H                 -9.65869454    0.78379205    0.96938242
 H                 -5.62395481    3.21033475    0.76931904
 O                 -7.07208547    1.05843152    0.52669966
 C                 -9.91856854   -3.82732136    0.17212100
 H                 -9.88177702   -4.30748960    1.11958697
 H                -10.94302632   -3.64265664   -0.08108895
 H                 -9.45955348   -4.45350419   -0.57589808
 C                 -1.58532418    1.44164801   -0.74791479
 H                 -1.49868963    1.75754784   -1.76616689
 H                 -1.11747764    2.14841132   -0.11683755
 H                 -1.10153958    0.50906889   -0.62871619
 N                -11.26011109   -1.32256815    0.88633640
 C                -11.90729556   -0.20040420    1.06192080
 H                -12.94397636   -0.40059926    1.23854827
 H                -11.52152709    0.32391762    1.91468400
 C                -11.74084576    0.66197556   -0.22682468
 H                -12.27391328    1.59248355   -0.11490206
 H                -10.71600584    0.86991307   -0.39541572
 H                -12.11471608    0.11316020   -1.07256663
 C                 -3.88294185    4.84326688    0.10920377
 H                 -4.25030847    4.79366195   -0.88616496
 H                 -4.70452889    4.84445851    0.79739696
 C                 -3.07784538    6.14186488    0.28256998
 H                 -2.26229737    6.14029457   -0.42448543
 H                 -3.71586973    6.97998696    0.10379890
 H                 -2.69289775    6.21215598    1.28752487
 H                 -2.73009263    3.74274110    1.33889295
 N                 -3.02113352    3.68572081    0.37432377
 C                 -5.03202456   -2.50190351   -0.73873666
 C                 -4.43235121   -3.33093411    0.20972080
 C                 -4.97150194   -2.83309348   -2.09232388
 C                 -3.77174450   -4.49052132   -0.19546806
 H                 -4.47958053   -3.06915052    1.27671683
 C                 -4.31158089   -3.99351281   -2.49771390
 C                 -3.71162009   -4.82214529   -1.54958296
 H                 -3.29851146   -5.14369427    0.55200240
 H                 -4.26437634   -4.25460162   -3.56499015
 H                 -3.19075014   -5.73651986   -1.86881636
 C                 -5.63356923   -1.91828443   -3.13941093
 O                 -5.48219260   -0.71551228   -3.34913952
 O                 -6.51092713   -2.58909363   -3.92787028
 C                 -7.10345048   -1.70725206   -4.88503877
 H                 -6.33723840   -1.27567682   -5.49459752
 H                 -7.63286985   -0.93023390   -4.37429625
 C                 -8.08235675   -2.49704774   -5.77361364
 O                 -8.85162068   -3.36667371   -5.32951435
 N                 -8.04698928   -2.17226339   -7.10096448
 H                 -8.64134193   -2.62850070   -7.74748149
 H                 -7.43209874   -1.48024544   -7.44091469
